39
	Energy: -777963.3695251
O          0.25059       -0.57519       -1.97603
O          0.35090       -1.90311       -2.53630
C          2.69487       -2.14210       -0.45745
H          2.36337        0.08108       -1.54911
Ru        -0.13392       -0.88053        0.05456
N          2.12214       -0.97282        0.21779
C          2.55439        0.25411       -0.47797
C         -2.71739        0.42468       -1.89084
C         -3.71547       -0.49412        0.66102
P         -2.17326        0.01436       -0.18921
H          3.63136        0.44363       -0.31389
C          2.56444       -0.92843        1.61373
C         -0.54877       -1.39379        1.76880
C          1.72697        1.45401       -0.10477
N          0.43875        1.18826        0.14941
C         -1.86856        1.70371        0.59127
C         -0.46352        2.16583        0.33625
C          2.19165        2.76510       -0.12733
H          3.24510        2.97293       -0.32016
H         -1.98704        1.52710        1.67552
H         -2.60784        2.46405        0.29480
C         -0.06554        3.50148        0.29390
C          1.27766        3.79770        0.07433
H         -0.79831        4.29634        0.43924
H          1.61152        4.83678        0.05186
O         -0.86465       -1.72315        2.84643
H         -0.58229       -2.15224       -2.62099
H          2.13908       -0.04472        2.10766
H          3.66953       -0.88543        1.67562
H          2.20595       -1.82233        2.13901
H          2.40942       -3.04329        0.10080
H          3.80036       -2.07829       -0.49536
H          2.27625       -2.21147       -1.46890
H         -3.46068        1.23573       -1.90660
H         -3.15336       -0.47713       -2.34603
H         -1.81590        0.69043       -2.46237
H         -3.48657       -0.69866        1.71673
H         -4.07373       -1.42686        0.20228
H         -4.50010        0.27466        0.58842
