128
	Energy: -1951572.5055138
C         -1.15194       -3.96254        0.55818
H         -0.28547        2.55688       -0.56699
O         -0.71663       -1.22947       -1.04323
H         -0.41574        1.72518       -2.90022
O         -1.37163        0.22431        1.25960
H         -0.14262       -0.44333       -0.99728
C         -1.67727       -3.05991        1.65360
H         -0.64876        4.24417       -0.11099
C         -0.95882        3.40685       -0.76038
H         -1.04447        0.07567       -3.01956
H         -0.80424        3.73235       -1.79927
C         -1.15597        1.09668       -3.41404
H         -0.91646        1.09973       -4.49107
H         -2.46097       -0.86938        2.68486
Ru        -2.52248       -0.57308       -0.26885
H         -2.04005        1.99190        1.39806
N         -2.87838       -2.29591        1.25096
C         -3.33258       -1.47943        2.39246
C         -2.42515        3.08378       -0.46455
H         -2.22018        3.77888        1.55552
H         -2.02347        3.73102       -3.37496
C         -2.59537        2.87446        1.04586
C         -2.58569        1.60700       -3.21317
P         -2.89982        1.44899       -1.33940
H         -3.66860       -2.09820        3.24145
C         -2.73620        3.01159       -3.79611
H         -3.62358       -3.65750       -0.14564
H         -3.64930       -4.96047        2.02194
H         -2.53836        2.95472       -4.87985
C         -3.96814       -3.18351        0.78104
H         -2.97044        5.14641       -0.27862
C         -3.38552       -1.50789       -1.58371
C         -3.31123        4.27088       -0.85685
H         -3.49938       -0.34703       -3.66603
C         -3.54712        0.69940       -3.98296
H         -3.26008        4.54057       -1.91680
H         -3.26225        0.72878       -5.04784
C         -4.39988       -0.51775        1.97028
N         -4.21716        0.01904        0.74920
C         -4.44520       -4.24977        1.75605
H         -3.65521        2.76763        1.32441
H         -4.81111       -2.53646        0.49757
H         -3.75507        3.40879       -3.67224
H         -4.85141       -3.82674        2.68713
C         -4.76609        1.42433       -1.12500
H         -5.25455       -4.82416        1.28070
H         -4.36541        4.10888       -0.58674
C         -5.08332        0.92583        0.25017
C         -5.48466       -0.14662        2.75743
H         -4.59044        1.04577       -3.92042
H         -5.61757       -0.59610        3.74205
H         -5.12379        0.67768       -1.85267
H         -5.27147        2.37505       -1.34127
C         -6.18240        1.33887        0.99957
C         -6.38195        0.79836        2.26671
H         -6.87085        2.07685        0.58688
H         -7.23854        1.10900        2.86765
H         -0.60569       -0.38424        1.38092
O         -3.86464       -2.21004       -2.38127
H         -0.53829        0.45268        4.17835
C          0.52979        0.40722        3.92102
H          1.10249        0.42570        4.86139
H          0.70910       -0.54051        3.39085
H          0.79305       -1.31344       -2.52605
O          0.91435       -1.37723        1.29448
H          1.46971       -3.38523       -1.45868
O          1.03384        0.96896       -0.20626
C          0.84882        1.56908        3.00435
H          1.21054       -0.84276       -4.19128
H          0.72851        2.53646        3.53091
C          1.59831       -1.32480       -3.27797
H          1.90942       -3.21844        0.24600
H          1.80927       -2.37257       -3.53444
H          0.13824        1.55339        2.16730
C          2.24561       -3.62799       -0.71930
H          2.31753       -4.72653       -0.64710
H          1.58278        2.70824        0.86890
Ru         2.48862       -0.13997        0.78538
H          1.77452        1.12681       -1.96506
N          2.20456        1.49639        2.42021
C          2.42865        2.68434        1.57538
C          2.85422       -0.57168       -2.83232
H          2.16359        1.25552       -3.72049
H          3.38851       -3.48871       -3.25647
C          2.53404        0.92498       -2.73502
C          3.61447       -3.05813       -1.10613
P          3.37383       -1.16762       -1.09234
H          2.45643        3.61660        2.16440
C          4.09113       -3.65269       -2.43111
H          3.12402        0.42379        3.95740
H          2.37123        2.55660        5.08958
H          4.18984       -4.74341       -2.29982
C          3.25511        1.39149        3.45879
H          3.55876       -0.36720       -4.84451
C          3.57726       -1.09645        1.89839
C          3.95888       -0.73043       -3.88287
H          4.37145       -3.13218        0.96251
C          4.63697       -3.46765       -0.04444
H          4.28934       -1.76320       -4.03702
H          4.67512       -4.56940       -0.01908
C          3.66953        2.53433        0.74934
N          3.88766        1.28977        0.28531
C          3.29696        2.50194        4.49834
H          3.43367        1.52044       -2.51419
H          4.22093        1.33668        2.93511
H          5.08006       -3.27043       -2.72699
H          3.48085        3.49358        4.05824
C          5.08766       -0.41751       -0.91673
H          4.12250        2.29925        5.19710
H          4.83902       -0.11051       -3.65529
C          4.95052        1.01411       -0.50029
C          4.52900        3.57781        0.42300
H          5.65342       -3.11756       -0.28298
H          4.33800        4.57849        0.81212
H          5.55431       -0.97211       -0.08606
H          5.73358       -0.52553       -1.79812
C          5.83620        2.02474       -0.86699
C          5.62030        3.31907       -0.40233
H          6.68607        1.79111       -1.50887
H          6.30554        4.12275       -0.67778
H          0.21141        0.79237        0.29387
O          4.18237       -1.67371        2.71045
H         -1.90771       -3.63943        2.56906
H         -0.89587       -2.33029        1.91152
H         -1.82472       -4.80355        0.32849
H         -0.19204       -4.38523        0.88638
H         -0.96821       -3.36937       -0.35049
H          0.46736       -1.56382        0.44287
