128
	Energy: -1951573.3041640
C          0.44944        1.22488       -3.77639
H          0.85001       -1.78901        2.23509
O          0.88713       -1.26790       -1.44493
H          1.57788       -3.69098        0.87899
O          0.98095        0.88491        0.39954
C          0.79921        2.22961       -2.69815
H          1.26570       -1.62533        3.95664
H          0.64403        3.26790       -3.05872
C          1.65776       -1.92898        2.97132
H          1.93112       -3.16606       -0.77294
H          1.88358       -3.00310        3.03292
H          0.12105        2.06733       -1.84896
C          2.32505       -3.74865        0.07538
H          2.42815       -4.80718       -0.21773
H          1.57306        2.83785       -0.37216
Ru         2.44962       -0.09044       -0.75468
H          1.79048        0.71994        2.13147
N          2.16494        2.06545       -2.18577
C          2.41038        2.98380       -1.07523
C          2.90298       -1.09150        2.67002
H          2.20094        0.53729        3.87486
H          3.52988       -4.02953        2.56215
C          2.56397        0.39387        2.84285
C          3.69327       -3.21981        0.52014
P          3.42989       -1.36334        0.85447
H          2.44494        4.04258       -1.39333
C          4.21952       -4.02271        1.70965
H          3.05995        1.30047       -3.90411
H          2.34497        3.63209       -4.57434
H          4.34614       -5.06930        1.38574
C          3.20642        2.14589       -3.21895
H          3.61586       -1.23656        4.68387
C          3.53938       -0.75838       -2.05805
C          4.01472       -1.42166        3.67240
H          4.38662       -2.90712       -1.54788
C          4.69148       -3.40826       -0.62397
H          4.35525       -2.46207        3.64201
H          4.75187       -4.48669       -0.84501
C          3.66012        2.63839       -0.31581
N          3.87226        1.32886       -0.07270
C          3.27034        3.44640       -4.00884
H          3.45363        1.03171        2.72334
H          4.17171        1.96408       -2.72147
H          5.20328       -3.66674        2.05212
H          3.45657        4.32098       -3.36660
C          5.12282       -0.55440        0.79579
H          4.09598        3.39154       -4.73430
H          4.88796       -0.76266        3.55393
C          4.95773        0.92694        0.62682
C          4.54049        3.60455        0.16296
H          5.70742       -3.07897       -0.35564
H          4.34930        4.65660       -0.05122
H          5.59454       -0.95183       -0.11779
H          5.77818       -0.79507        1.64343
C          5.86173        1.85499        1.13857
C          5.64754        3.20948        0.90675
H          6.72471        1.50940        1.70833
H          6.34577        3.95253        1.29638
H          0.16102        0.80024       -0.13289
O          4.15621       -1.09821       -2.98708
C         -1.19301       -3.84473       -1.18152
H         -0.26419        2.42261        1.01026
O         -0.73798       -1.41373        0.85327
H         -0.39436        1.23053        3.13584
O         -1.36411        0.39954       -1.19688
H         -0.16417       -0.63117        0.95056
C         -1.71073       -2.77480       -2.11892
H         -0.62877        4.16044        0.81622
C         -0.94210        3.23229        1.32537
H         -1.01484       -0.42043        2.99262
H         -0.79963        3.39421        2.40359
C         -1.12835        0.52400        3.54629
H         -0.88319        0.35518        4.60876
H         -2.46759       -0.43411       -2.77867
Ru        -2.53285       -0.62460        0.18044
H         -2.00588        2.17779       -1.04332
N         -2.90366       -2.07190       -1.59740
C         -3.34620       -1.07479       -2.59111
C         -2.40466        2.95723        0.96836
H         -2.18292        3.96727       -0.91269
H         -2.01998        3.12487        3.94360
C         -2.56224        2.99352       -0.55736
C         -2.56286        1.05027        3.43758
P         -2.88694        1.20278        1.56571
H         -3.68593       -1.54294       -3.53017
C         -2.72345        2.33878        4.24338
H         -3.66771       -3.63450       -0.44206
H         -3.69938       -4.57063       -2.78946
H         -2.52085        2.10771        5.30280
C         -4.00430       -3.01267       -1.28002
H         -2.94425        5.02381        1.12511
C         -3.41776       -1.74699        1.32201
C         -3.29761        4.06429        1.53923
H         -3.44520       -0.96318        3.57207
C         -3.51212        0.01888        4.05009
H         -3.26800        4.14975        2.63062
H         -3.23066       -0.11510        5.10783
C         -4.40472       -0.18363       -2.01841
N         -4.21751        0.14522       -0.72650
C         -4.48818       -3.90161       -2.41606
H         -3.61973        2.93371       -0.85771
H         -4.84222       -2.41181       -0.89722
H         -3.74677        2.74021        4.18807
H         -4.88329       -3.32890       -3.26859
C         -4.75401        1.22729        1.35488
H         -5.30745       -4.53433       -2.04271
H         -4.34603        3.95500        1.22413
C         -5.07513        0.96578       -0.08390
C         -5.48543        0.32174       -2.73305
H         -4.56123        0.35307        4.03718
H         -5.62270        0.04053       -3.77768
H         -5.11703        0.37291        1.94924
H         -5.25229        2.13269        1.72618
C         -6.16943        1.50670       -0.75472
C         -6.37327        1.18280       -2.09319
H         -6.85123        2.17357       -0.22620
H         -7.22639        1.59603       -2.63427
H         -0.61046       -0.19239       -1.42034
O         -3.91652       -2.56087        1.99078
H         -0.62551        1.30058       -3.99399
H          0.64812        0.20444       -3.41292
H          0.99685        1.39251       -4.71719
H         -1.00677       -3.40740       -0.18877
H         -0.23452       -4.21439       -1.57202
H         -1.87164       -4.70722       -1.08997
H         -0.92118       -2.02245       -2.25956
H         -1.94765       -3.19941       -3.11412
H          0.39291       -1.52961       -0.63555
