62
	Energy: -974727.8788646
H         -3.37170       -3.45409        1.93521
C         -3.14617       -2.83166        1.05673
H         -3.89627       -3.06852        0.28600
H         -2.14678       -3.11364        0.68908
H          1.43283       -0.73896        2.71410
O          0.00504       -2.50545        0.26301
H          4.24011       -1.78082        0.62515
O         -0.44643       -0.21944        1.93866
C         -3.15723       -1.37684        1.47382
H          2.86230       -0.05299        3.56056
H         -4.15576       -1.07734        1.84882
C          2.49277       -0.45756        2.60301
H          2.72915       -2.70038        0.34332
H          3.09225       -1.34501        2.36268
H         -2.41870       -1.21361        2.27597
C          3.55747       -2.16404       -0.14512
H          4.11907       -2.88988       -0.75579
H         -2.27115        0.85962        1.90665
Ru        -0.35462       -0.69712        0.13791
H          0.71569        1.51588        2.12337
N         -2.72905       -0.45400        0.40380
C         -2.76769        0.92147        0.91974
C          2.60744        0.64126        1.54098
H          2.14954        2.16794        2.97809
H          4.79589        0.24930       -0.92510
C          1.76287        1.83665        1.99980
C          3.02434       -1.06043       -1.06208
P          1.82004        0.00258       -0.05920
H         -3.79654        1.30265        1.03468
C          4.16657       -0.24589       -1.67315
H         -3.23597       -1.56796       -1.28232
H         -5.44523       -1.22885       -0.10792
H          4.81250       -0.92768       -2.25088
C         -3.48927       -0.59015       -0.84988
H          4.38508        1.54949        2.32069
C         -0.62707       -0.88215       -1.78209
C          4.05739        1.09118        1.37284
H          1.45359       -2.38214       -1.79420
C          2.24643       -1.73425       -2.19388
H          4.74174        0.25774        1.16261
H          2.95067       -2.35439       -2.77279
C         -1.92243        1.87476        0.12878
N         -0.71947        1.39723       -0.22866
C         -5.00080       -0.44809       -0.74224
H          1.83617        2.69550        1.31409
H         -3.09450        0.16548       -1.54675
H          3.79683        0.51719       -2.37522
H         -5.30680        0.53018       -0.34161
C          1.53853        1.52825       -1.10810
H         -5.44435       -0.54324       -1.74477
H          4.17855        1.85301        0.58630
C          0.21961        2.17956       -0.78374
C         -2.25559        3.20258       -0.12104
H          1.80126       -1.01006       -2.89205
H         -3.23994        3.57988        0.15842
H          1.51330        1.16638       -2.15038
H          2.36129        2.25550       -1.03714
C         -0.04789        3.52524       -1.03064
C         -1.30354        4.03277       -0.70786
H          0.71958        4.16173       -1.47237
H         -1.53725        5.08026       -0.90722
O         -0.88592       -0.86035       -2.90796
