128
	Energy: -1951514.6685434
H          0.84052       -2.25311       -2.78417
C         -0.23016       -2.03744       -2.88605
H         -0.57102       -2.40557       -3.86621
H         -0.34157       -0.94451       -2.83707
H         -1.64170        1.80046        2.89472
O         -0.72294        0.62491       -1.06975
H         -1.47959        3.47385        1.34965
O         -1.68143       -1.00834        0.89192
H         -0.59535        0.16002        1.52690
C         -0.95291       -2.67994       -1.72274
H         -2.72120        1.84010        4.31167
H         -0.92044       -3.78459       -1.80117
C         -2.64606        2.08586        3.23880
H         -1.25654        2.94128       -0.32533
H         -2.75935        3.17491        3.15115
H         -0.44556       -2.38791       -0.79259
C         -1.83479        3.61673        0.32271
H         -1.62574        4.65797        0.02470
H         -2.39869       -2.96096        0.34173
Ru        -2.59566       -0.16092       -0.64776
H         -2.65270       -0.58334        2.49333
N         -2.36315       -2.24342       -1.59784
C         -3.03659       -3.03916       -0.55326
C         -3.74898        1.31946        2.50435
H         -3.64812       -0.26873        3.94669
H         -3.94625        4.28929        2.05223
C         -3.60773       -0.16651        2.84936
C         -3.33511        3.34700        0.15613
P         -3.59593        1.52157        0.59701
H         -3.14219       -4.09816       -0.84126
C         -4.18056        4.31654        0.98119
H         -2.63361       -1.64826       -3.57898
H         -2.17894       -4.14639       -3.71682
H         -3.98034        5.34225        0.62908
C         -3.10242       -2.34818       -2.87765
H         -5.10777        1.73192        4.11432
C         -3.15199        0.56368       -2.27223
C         -5.11937        1.78407        3.01304
H         -3.02838        2.96955       -1.97683
C         -3.67618        3.55969       -1.31979
H         -5.36574        2.81755        2.73822
H         -3.50398        4.62220       -1.55798
C         -4.36796       -2.43769       -0.21014
N         -4.38113       -1.09200       -0.21354
C         -3.17526       -3.73298       -3.50339
H         -4.42527       -0.77276        2.43354
H         -4.11879       -1.96813       -2.69623
H         -5.25952        4.13419        0.85440
H         -3.72043       -4.45666       -2.87920
C         -5.34568        1.09320        0.04616
H         -3.71432       -3.66016       -4.45984
H         -5.93331        1.12663        2.67327
C         -5.49449       -0.39610        0.10003
C         -5.50907       -3.15651        0.12748
H         -4.72847        3.34280       -1.55912
H         -5.48528       -4.24674        0.12427
H         -5.39920        1.41082       -1.00804
H         -6.14654        1.60481        0.59464
C         -6.66267       -1.06745        0.45377
C         -6.66638       -2.45986        0.46973
H         -7.55649       -0.49909        0.71248
H         -7.57298       -3.00206        0.74405
O         -3.40404        0.96102       -3.33181
C          0.89904       -3.73171        2.71449
H          1.01359        1.04158       -2.29506
O         -0.12798        0.98651        1.82267
H          1.24131        3.20125       -0.85621
O          1.51852       -1.13690       -0.49408
H          0.82336        0.81278        1.65421
C          1.17691       -2.34510        2.15621
H          1.49211        1.02732       -4.01085
C          1.75687        1.42185       -3.01446
H          1.76771        3.00575        0.82090
H          1.64899        2.51591       -3.06415
C          1.97639        3.54475       -0.11382
H          1.81802        4.62383        0.05364
H          2.53022       -3.00441        0.15890
Ru         2.76648       -0.04139        0.73767
H          2.67561       -1.03155       -2.07911
N          2.60090       -1.98701        1.95836
C          3.23282       -2.92416        1.00403
C          3.19079        1.00164       -2.68368
H          2.99687       -0.79961       -3.83875
H          2.98925        4.01912       -2.61904
C          3.31565       -0.52190       -2.81920
C          3.41729        3.30850       -0.58173
P          3.54254        1.42138       -0.85356
H          3.38858       -3.91959        1.45565
C          3.70547        4.17978       -1.80325
H          4.35562       -1.54072        2.98214
H          2.38435       -0.23237        4.03344
H          3.62357        5.23765       -1.50059
C          3.37597       -1.98434        3.21683
H          3.94360        1.20083       -4.67999
C          3.49418        0.94625        2.09061
C          4.16731        1.62428       -3.68610
H          4.29331        3.15174        1.43832
C          4.38621        3.74278        0.52040
H          4.08475        2.71247       -3.77194
H          4.16501        4.79133        0.78193
C          4.53163       -2.40174        0.44983
N          4.51001       -1.09843        0.14339
C          2.72102       -1.22694        4.35416
H          4.35911       -0.85558       -2.70433
H          3.56550       -3.03025        3.53098
H          4.72349        4.02930       -2.19144
H          1.85839       -1.76843        4.76853
C          5.37414        0.99133       -0.69100
H          3.45166       -1.08927        5.16455
H          5.21502        1.36975       -3.46452
C          5.54851       -0.48094       -0.44195
C          5.65844       -3.17208        0.18390
H          5.43282        3.70979        0.17958
H          5.67600       -4.23157        0.44358
H          5.70147        1.52347        0.21738
H          6.00622        1.33539       -1.52244
C          6.69878       -1.20595       -0.75386
C          6.75075       -2.56054       -0.43242
H          7.54228       -0.71178       -1.23800
H          7.64639       -3.14154       -0.66061
H          0.78527       -0.56025       -0.78993
O          3.92481        1.54918        3.00268
H         -0.18949       -3.84641        2.83096
H          1.35456       -3.90128        3.70334
H          1.23928       -4.53427        2.04175
H          0.71188       -2.20240        1.17126
H          0.74400       -1.57738        2.80962
H         -0.43434        0.98733       -0.21631
