128
	Energy: -1951458.7937574
H         -1.35171       -0.17838       -4.75676
C         -2.22120       -0.15365       -4.08357
H         -3.12446       -0.09082       -4.70942
H         -2.13874        0.75901       -3.47388
H         -0.31864        1.26165        1.25622
O         -1.25235       -0.74231       -0.30395
H         -2.04379        3.71009        0.57254
O         -0.24646       -0.24838       -1.03991
H         -1.89038        2.23946       -1.47961
C         -2.19157       -1.38740       -3.20833
H          0.17655        1.42283        2.96913
H         -2.24584       -2.30644       -3.82265
C         -0.64075        1.60463        2.25074
H         -3.45162        3.48734       -0.48476
H         -0.79077        2.69402        2.21027
H         -1.24235       -1.41623       -2.65706
C         -3.13659        3.81978        0.51332
H         -3.37821        4.89164        0.60732
H         -2.03679       -2.65041       -1.06099
Ru        -3.10641        0.23167       -0.59524
H         -1.38113       -0.99773        1.65748
N         -3.26666       -1.41876       -2.18875
C         -3.09411       -2.63830       -1.37028
C         -1.88698        0.85737        2.72225
H         -0.74066       -0.85900        3.31285
H         -2.51385        3.83009        3.15775
C         -1.61501       -0.65250        2.67313
C         -3.86404        3.04233        1.61597
P         -3.27352        1.22443        1.46890
H         -3.29959       -3.55335       -1.95024
C         -3.58768        3.72103        2.95639
H         -4.75083       -0.40596       -3.25483
H         -4.29652       -2.41845       -4.70182
H         -4.01674        4.73650        2.92227
C         -4.62145       -1.39247       -2.79362
H         -1.44604        0.71039        4.81549
C         -4.52409        1.17809       -1.24801
C         -2.20036        1.20480        4.18122
H         -5.69123        2.59253        0.45922
C         -5.37387        3.11646        1.36930
H         -2.15025        2.27605        4.39759
H         -5.65277        4.17603        1.24528
C         -3.91805       -2.60747       -0.11301
N         -4.00636       -1.40192        0.46698
C         -4.93926       -2.47766       -3.81136
H         -2.45667       -1.23429        3.08026
H         -5.33710       -1.43361       -1.95907
H         -4.05587        3.19517        3.79998
H         -4.85941       -3.49433       -3.39810
C         -4.69944        0.19101        2.14153
H         -5.97838       -2.34659       -4.14847
H         -3.18328        0.83004        4.50675
C         -4.63802       -1.22213        1.63748
C         -4.49428       -3.72568        0.47983
H         -5.94680        2.72917        2.22569
H         -4.42361       -4.70178       -0.00194
H         -5.60672        0.65085        1.71878
H         -4.79707        0.22148        3.23677
C         -5.21829       -2.30917        2.29179
C         -5.14552       -3.56846        1.70270
H         -5.72485       -2.16529        3.24703
H         -5.60045       -4.42954        2.19587
O         -5.39774        1.77985       -1.74449
C          1.95064        4.78665       -0.60173
H          1.76965       -0.90476        2.80971
O         -1.00918        2.26865       -1.89179
H          0.60556       -2.82294        0.89836
O          2.64867        1.23333        1.58109
H         -0.64410        1.39575       -1.61062
C          1.82668        3.27959       -0.43151
H          2.44368       -1.76675        4.22068
C          2.29765       -1.81390        3.12807
H          0.76110       -2.18235       -0.73635
H          1.65697       -2.68264        2.91340
C          0.98977       -3.05220       -0.10672
H          0.44042       -3.93308       -0.48354
H          3.88465        2.90479        0.89071
Ru         2.74747        0.27612       -0.27792
H          4.03241        0.24109        2.49531
N          2.97292        2.46949       -0.91561
C          4.19078        2.85260       -0.16634
C          3.65643       -1.90891        2.43326
H          4.59850       -0.68745        3.92722
H          2.27417       -4.56489        1.74316
C          4.51053       -0.69577        2.82677
C          2.48685       -3.37191       -0.08686
P          3.34382       -1.78138        0.55157
H          4.57184        3.83524       -0.49309
C          2.71632       -4.63490        0.74062
H          3.99257        1.91376       -2.64356
H          1.46622        1.56247       -3.03246
H          2.21942       -5.47525        0.22639
C          3.22476        2.65136       -2.36265
H          4.74656       -2.97798        3.93849
C          2.63576       -0.38275       -1.96949
C          4.40805       -3.15803        2.90438
H          2.87974       -2.81597       -2.18788
C          2.95820       -3.67481       -1.51198
H          3.79705       -4.06582        2.91717
H          2.31666       -4.47217       -1.92370
C          5.28411        1.82581       -0.23900
N          4.86005        0.55630       -0.19084
C          1.99978        2.49775       -3.23958
H          5.53286       -0.77220        2.42431
H          3.67222        3.65176       -2.52665
H          3.78033       -4.89358        0.83866
H          1.28254        3.31870       -3.10775
C          5.09793       -1.84569       -0.13458
H          2.31440        2.48267       -4.29373
H          5.31141       -3.35708        2.30723
C          5.71662       -0.47646       -0.14568
C          6.64396        2.12100       -0.26229
H          3.99235       -4.05282       -1.53013
H          6.98026        3.15737       -0.31289
H          4.98049       -2.16770       -1.18174
H          5.75382       -2.57682        0.36129
C          7.09210       -0.24426       -0.14126
C          7.55456        1.06756       -0.20547
H          7.78759       -1.08325       -0.09528
H          8.62751        1.26910       -0.21384
H          1.77264        1.05510        1.93407
O          2.50241       -0.76839       -3.06688
H          1.03001        5.25530       -0.22166
H          2.05318        5.09101       -1.65505
H          2.79123        5.21755       -0.03585
H          1.73106        3.00783        0.62859
H          0.92661        2.92047       -0.94485
H          1.08400        0.09696       -0.35469
