39
	Energy: -778002.1873236
O         -0.55505       -2.76423       -0.44723
O          0.12508       -0.53954       -2.02669
C          2.33494       -2.33026       -0.93340
H          2.32532        0.00079       -1.74955
N          2.03471       -1.17743       -0.07897
C          2.56292        0.06056       -0.67376
C         -2.66050        0.70913       -1.96705
C         -3.68291       -0.22283        0.57254
P         -2.13697        0.26299       -0.27867
H          3.65817        0.13929       -0.54726
C          2.57390       -1.37539        1.26528
C         -0.47743       -1.05726        1.74030
C          1.86506        1.29245       -0.16828
N          0.54935        1.13551        0.08192
C         -1.69729        1.88636        0.55815
C         -0.24327        2.19517        0.34859
C          2.46033        2.54481       -0.08112
H          3.52962        2.65191       -0.26713
H         -1.87475        1.70669        1.63369
H         -2.33600        2.73055        0.25599
C          0.29836        3.47682        0.41385
C          1.66531        3.64977        0.21585
H         -0.35016        4.32785        0.62448
H          2.10798        4.64516        0.28014
O         -0.72992       -1.22961        2.86076
H         -3.43464        1.49046       -1.96458
H         -3.04101       -0.20175       -2.45134
H         -1.76103        1.01476       -2.51817
H         -3.45978       -0.44094        1.62671
H         -4.05811       -1.14273        0.10074
H         -4.45366        0.55989        0.50619
H          1.84660       -3.21136       -0.49936
H          3.42719       -2.48162       -1.02251
H          1.87627       -2.14584       -1.91327
H          2.34750       -0.50001        1.89028
H          3.67065       -1.52383        1.23530
H          2.10148       -2.25869        1.71336
Ru        -0.17204       -0.78748       -0.08391
H         -1.30296       -3.07172        0.07743
