125
	Energy: -1903622.5751306
Ru         1.95096       -0.14653       -0.32407
O          2.00832       -1.80029        0.92464
C          1.90893        1.05768       -1.69607
P          2.88599        1.33842        1.10148
N          4.01311       -0.55768       -0.70975
C          4.53060        1.60252        0.25451
H          4.32826        2.35352       -0.52810
H          5.31172        2.01152        0.91161
C          4.98001        0.33183       -0.38985
C          6.32650        0.06494       -0.62494
H          7.07516        0.80881       -0.35061
C          6.69055       -1.14695       -1.19781
H          7.73907       -1.37674       -1.39527
C          5.69184       -2.06110       -1.51010
H          5.92828       -3.02776       -1.95594
C          4.36117       -1.74588       -1.24971
C          3.26539       -2.73818       -1.48420
H          3.67502       -3.59036       -2.06069
H          2.93674       -3.07047       -0.48254
N          2.09801       -2.14698       -2.11742
C          2.29339        3.13737        1.30343
C          3.40572        4.10595        1.71752
H          4.20219        4.16830        0.96148
H          3.86246        3.86481        2.68306
H          2.96774        5.11464        1.80329
C          1.15082        3.17641        2.31683
H          0.65697        4.16110        2.27409
H          1.50238        3.02964        3.34710
H          0.39099        2.41354        2.10485
C          1.76662        3.60005       -0.05230
H          0.94948        2.96248       -0.40187
H          2.54516        3.60685       -0.82886
H          1.38789        4.63073        0.04669
C          3.33584        0.61429        2.80336
C          4.04527        1.59470        3.73568
H          3.39887        2.41977        4.06399
H          4.95979        2.01770        3.29136
H          4.35144        1.04365        4.64064
C          4.26228       -0.58364        2.56289
H          4.46589       -1.05356        3.54002
H          5.23322       -0.28524        2.13842
H          3.76716       -1.32593        1.92045
C          2.04916        0.09926        3.45054
H          2.30463       -0.40806        4.39646
H          1.57687       -0.62955        2.77817
H          1.33840        0.90239        3.68369
C          1.22294       -1.15312       -4.23495
H          0.48557       -1.92516       -4.49965
H          1.56895       -0.68709       -5.16917
H          0.71440       -0.38531       -3.63880
C          0.93641       -3.02622       -2.00061
H          0.06527       -2.47795       -2.38049
H          0.77323       -3.16167       -0.92130
C          1.03165       -4.37637       -2.69966
H          1.18407       -4.27465       -3.78584
H          0.09062       -4.92698       -2.55004
H          1.84534       -5.00091       -2.29982
C          2.40794       -1.72102       -3.48232
H          2.85344       -2.56024       -4.05949
H          3.19240       -0.95073       -3.40528
O          0.00019       -0.44384        0.00209
Ru        -1.95090       -0.14533        0.32507
C         -1.91025        1.06339        1.69316
O         -2.00709       -1.80286       -0.91908
P         -2.88584        1.33489       -1.10582
N         -2.09803       -2.13971        2.12450
N         -4.01323       -0.55597        0.71084
C         -3.26497       -2.73362        1.49287
H         -3.67443       -3.58398        2.07214
H         -2.93570       -3.06923        0.49252
C         -4.36107       -1.74256        1.25452
C         -5.69174       -2.05747        1.51527
H         -5.92807       -3.02278        1.96405
C         -6.69065       -1.14469        1.19955
H         -7.73918       -1.37425        1.39730
C         -6.32681        0.06549        0.62298
H         -7.07561        0.80824        0.34600
C         -4.98029        0.33212        0.38760
C         -4.53105        1.60091       -0.26057
H         -4.32960        2.35456        0.51970
H         -5.31194        2.00738       -0.91950
C         -3.33465        0.60529       -2.80560
C         -4.04399        1.58254       -3.74129
H         -4.34943        1.02859       -4.64473
H         -3.39782        2.40691       -4.07178
H         -4.95896        2.00646       -3.29877
C         -2.04740        0.08872       -3.45040
H         -2.30204       -0.42133       -4.39509
H         -1.57557       -0.63808       -2.77552
H         -1.33660        0.89131       -3.68528
C         -4.26076       -0.59225       -2.56192
H         -5.23202       -0.29293       -2.13882
H         -3.76567       -1.33238       -1.91697
H         -4.46372       -1.06522       -3.53771
C         -2.29407        3.13359       -1.31317
C         -3.40688        4.10043       -1.73009
H         -4.20333        4.16471       -0.97420
H         -3.86357        3.85624       -2.69489
H         -2.96935        5.10906       -1.81888
C         -1.76753        3.60044        0.04124
H         -1.38914        4.63095       -0.06073
H         -0.95022        2.96414        0.39276
H         -2.54614        3.60926        0.81771
C         -1.15158        3.17055       -2.32673
H         -0.65856        4.15578       -2.28685
H         -1.50303        3.02053       -3.35658
H         -0.39106        2.40896       -2.11267
C         -2.40857       -1.70893        3.48776
H         -2.85399       -2.54619        4.06781
H         -3.19324       -0.93918        3.40766
C         -1.22390       -1.13797        4.23864
H         -0.48672       -1.90899        4.50682
H         -1.57028       -0.66807        5.17077
H         -0.71499       -0.37267        3.63954
C         -0.93601       -3.01891        2.01126
H         -0.06533       -2.46892        2.38968
H         -0.77228       -3.15794        0.93250
C         -1.03102       -4.36670        2.71486
H         -1.18397       -4.26145        3.80063
H         -0.08966       -4.91737        2.56751
H         -1.84422       -4.99297        2.31671
O         -1.96297        1.73897        2.64636
O          1.96054        1.73006       -2.65157
H          1.03960       -1.82295        1.01395
H         -1.03823       -1.82607       -1.00680
