64
	Energy: -975781.7288466
N         -0.71461        1.41145       -0.05552
C         -1.93725        1.87355        0.26183
C          0.19459        2.20723       -0.65239
C         -2.28128        3.20266        0.05361
C         -1.33114        4.06030       -0.49717
C         -0.08773        3.55709       -0.86171
C         -2.85043        0.84429        0.85528
H         -3.27959        3.55437        0.31562
H         -1.56883        5.11248       -0.66341
H          0.66192        4.19707       -1.32817
C          1.45721        1.55183       -1.11784
N         -2.72411       -0.45534        0.16951
H         -3.89160        1.21043        0.86121
H         -2.55608        0.68653        1.90573
H          1.24304        1.16737       -2.13027
P          1.78985       -0.01998       -0.16505
H          2.29722        2.25937       -1.16090
Ru        -0.39928       -0.61383        0.08172
C         -3.28283       -0.39340       -1.19918
C          2.97324       -0.99546       -1.29362
C         -3.38475       -1.48595        1.00200
C          2.72182        0.58988        1.38220
C          2.11769       -1.74151       -2.32039
C          3.72410       -2.04167       -0.46792
C          3.96342       -0.09780       -2.03899
C          1.86381        1.68472        2.02822
C          4.09031        1.19356        1.06301
C          2.89349       -0.54913        2.39174
C         -0.39429       -0.83617        1.89956
O         -0.45848       -1.02652        3.05049
H         -2.68999        0.34812       -1.75005
C         -4.77475       -0.11819       -1.30549
H         -3.03278       -1.34793       -1.67752
H         -2.85003       -1.49718        1.96295
C         -3.35227       -2.86901        0.38750
H         -4.42405       -1.16918        1.22192
O         -0.32253       -2.62904       -0.33069
H          0.22403       -3.10148        0.30746
O         -0.53805       -0.41410       -1.96323
H         -0.51927       -1.34094       -2.23979
H         -2.32197       -3.10175        0.06512
H         -4.03521       -2.96053       -0.47067
H         -3.67404       -3.60285        1.14184
H         -5.05270       -0.10914       -2.37017
H         -5.06413        0.86089       -0.89282
H         -5.38839       -0.88876       -0.81452
H          2.78956       -2.35108       -2.94866
H          1.55854       -1.05021       -2.96420
H          1.38471       -2.39095       -1.81685
H          4.25560       -2.71733       -1.15807
H          3.03302       -2.65720        0.12777
H          4.47476       -1.60264        0.20341
H          4.59861       -0.73497       -2.67721
H          4.62793        0.47120       -1.37696
H          3.44808        0.60838       -2.70613
H          4.81061        0.44266        0.71220
H          4.50493        1.63794        1.98338
H          4.03158        1.99636        0.31245
H          3.57490       -1.32971        2.03359
H          1.93780       -1.01914        2.65161
H          3.32255       -0.13633        3.32020
H          2.33188        1.98025        2.98143
H          0.84386        1.34147        2.24529
H          1.79979        2.58622        1.40116
