128
	Energy: -1951573.6088386
H          0.45669       -1.41554       -3.91019
C         -0.60849       -1.19121       -3.76131
H         -1.11536       -1.29884       -4.73276
H         -0.68914       -0.14799       -3.42124
H         -0.74297        0.90882        2.57857
O         -0.73313        0.99069       -1.30811
H         -0.86407        3.10316        1.53230
O         -1.30655       -1.17052        0.32709
H         -0.11798        0.23950       -1.31847
C         -1.15605       -2.12135       -2.70053
H         -1.34189        0.63234        4.24389
H         -1.19394       -3.16363       -3.07447
C         -1.54956        1.15446        3.29347
H         -1.17142        2.92058       -0.19928
H         -1.50205        2.23286        3.50526
H         -0.49457       -2.11224       -1.82445
C         -1.48683        3.46582        0.70359
H         -1.28687        4.54268        0.57069
H         -2.17348       -2.85488       -0.51445
Ru        -2.51776        0.09058       -0.76873
H         -2.32615       -1.22677        2.00794
N         -2.49410       -1.72633       -2.21407
C         -2.97419       -2.74821       -1.26400
C         -2.93493        0.72547        2.80365
H         -2.70322       -1.17497        3.77243
H         -2.82644        3.73565        3.11401
C         -2.99864       -0.80829        2.77427
C         -2.98156        3.26345        0.97162
P         -3.21371        1.37824        1.02207
H         -3.15290       -3.72018       -1.75468
C         -3.41191        4.01555        2.22952
H         -3.11689       -0.67633       -3.90443
H         -2.77234       -3.04850       -4.74444
H         -3.24914        5.09319        2.05928
C         -3.46221       -1.53612       -3.31726
H         -3.76709        0.77330        4.77624
C         -3.39499        1.14602       -1.98472
C         -4.00916        1.20050        3.78848
H         -3.48450        3.39830       -1.16373
C         -3.76998        3.84199       -0.20428
H         -4.05874        2.28811        3.90782
H         -3.54789        4.92029       -0.26501
C         -4.20392       -2.27738       -0.54802
N         -4.18814       -0.97126       -0.21953
C         -3.69183       -2.73052       -4.23152
H         -4.02129       -1.17123        2.58909
H         -4.41501       -1.23043       -2.86054
H         -4.48087        3.87829        2.45436
H         -4.10485       -3.60071       -3.69946
C         -5.04785        1.04374        0.77758
H         -4.42084       -2.44844       -5.00597
H         -5.01097        0.83045        3.52344
C         -5.21189       -0.41068        0.46124
C         -5.27900       -3.08726       -0.20149
H         -4.85906        3.74404       -0.07432
H         -5.27592       -4.14092       -0.48292
H         -5.32999        1.63204       -0.11068
H         -5.69471        1.35408        1.60901
C         -6.31091       -1.17896        0.83734
C         -6.34379       -2.53021        0.50361
H         -7.12815       -0.71577        1.39103
H         -7.19795       -3.14636        0.78976
O         -3.88678        1.76908       -2.83721
C          0.53409       -3.71739        2.88972
H          1.03191        1.20848       -2.61109
O          0.65050        0.63916        1.17066
H          1.12549        3.11974       -1.16533
O          1.44261       -1.31103       -0.69485
H          0.26065        1.02485        0.36109
C          0.80054       -2.40419        2.17077
H          1.68202        1.04433       -4.26091
C          1.88201        1.46254       -3.26027
H          1.45188        2.85330        0.54886
H          1.90016        2.55632       -3.36662
C          1.77392        3.42698       -0.33278
H          1.60977        4.50161       -0.14530
H          2.21320       -3.13261        0.23384
Ru         2.48771       -0.14715        0.67409
H          2.42528       -1.08233       -2.29685
N          2.22014       -2.03548        1.98131
C          2.88466       -3.01696        1.10162
C          3.21523        0.90739       -2.75460
H          3.06562       -0.85253       -3.97218
H          3.14665        3.90086       -2.70611
C          3.21891       -0.61872       -2.90429
C          3.25842        3.18593       -0.62318
P          3.39313        1.30222       -0.89528
H          3.03776       -3.98536        1.60832
C          3.72369        4.05980       -1.78770
H          3.93789       -1.53805        3.05434
H          1.86008       -0.15924        3.86531
H          3.58701        5.11498       -1.49687
C          2.93991       -1.94811        3.26960
H          4.16382        1.16053       -4.65719
C          3.31771        0.77390        2.01601
C          4.36497        1.44823       -3.61143
H          3.80161        3.07199        1.51083
C          4.07551        3.61023        0.59852
H          4.47194        2.53769       -3.58867
H          3.87932        4.67993        0.78110
C          4.18485       -2.51032        0.55399
N          4.19730       -1.20307        0.23710
C          2.23139       -1.09489        4.30517
H          4.19048       -1.05275       -2.61958
H          3.09882       -2.96832        3.67033
H          4.79216        3.92069       -2.01152
H          1.37686       -1.62062        4.75467
C          5.18533        0.84532       -0.56671
H          2.93276       -0.83914        5.11222
H          5.33086        0.99479       -3.34259
C          5.28552       -0.62889       -0.31867
C          5.29319       -3.31376        0.30802
H          5.15955        3.50693        0.43450
H          5.26682       -4.37010        0.57750
H          5.44504        1.36569        0.36985
H          5.89468        1.17571       -1.33728
C          6.41479       -1.39237       -0.60461
C          6.41695       -2.74787       -0.28829
H          7.28349       -0.91982       -1.06390
H          7.29594       -3.35964       -0.49892
H          0.51938       -1.28667       -0.38188
O          3.84337        1.29469        2.91844
H         -0.55554       -3.85917        2.95147
H          0.92613       -3.74051        3.91838
H          0.94292       -4.58591        2.35026
H          0.33909       -2.42001        1.17789
H          0.32431       -1.56825        2.69632
H         -0.67343       -0.57507        0.79032
