  39
  -5668.6347902092621     
 O    -0.43728033    -2.88986880    -1.22059513
 O     0.01072006    -1.15926324    -2.16057615
 C     2.54759821    -2.43747772    -0.70919219
 H     2.44612775    -0.14249022    -1.70345216
 N     2.12487170    -1.23114238     0.04303850
 C     2.62047055    -0.00886298    -0.64061489
 C    -2.87559717     0.87962919    -1.85668339
 C    -3.87797477    -0.02746943     0.75622607
 P    -2.29420613     0.29809104    -0.17808649
 H     3.68994019     0.11231407    -0.47556600
 C     2.63446526    -1.29572540     1.43245850
 C    -0.42517600    -1.11796295     2.03526966
 C     1.88531427     1.24155372    -0.20809201
 N     0.57880933     1.09855615     0.05344743
 C    -1.66441087     1.88021247     0.65687480
 C    -0.21056753     2.15434403     0.34797870
 C     2.47760799     2.50106027    -0.16125789
 H     3.52818477     2.60713109    -0.36260372
 H    -1.76355295     1.70866859     1.72754258
 H    -2.27528270     2.73776658     0.39383644
 C     0.33884029     3.42996022     0.38761050
 C     1.70049336     3.59590110     0.13645007
 H    -0.28294042     4.27462591     0.62127536
 H     2.13843195     4.57847672     0.17568621
 O    -0.76941542    -1.65784233     3.06345115
 H    -3.61280414     1.67336524    -1.77222999
 H    -3.30868937     0.04220119    -2.39389968
 H    -2.02276168     1.22893868    -2.42838256
 H    -3.63710698    -0.33324758     1.76890258
 H    -4.41890407    -0.83703111     0.27598941
 H    -4.51302617     0.85388025     0.78345248
 H     2.17775313    -3.31465047    -0.19503086
 H     3.63727585    -2.48753836    -0.76820659
 H     2.11698942    -2.41043829    -1.69912923
 H     2.31779191    -0.42179048     1.98604882
 H     3.72491453    -1.35349895     1.43491293
 H     2.22794279    -2.16974797     1.92250448
Ru    -0.11712086    -0.90963409    -0.04038537
 H    -1.23425376    -2.88666281    -1.78515039
