128
	Energy: -1951476.7711256
H         -0.89663        2.64296        3.71461
C         -1.82051        2.11644        3.43322
H         -2.52055        2.20160        4.27864
H         -1.56165        1.05757        3.29041
H         -0.28768       -1.17047       -1.92357
O         -1.54793        1.14940       -0.36805
H         -0.46505       -3.21252       -0.62748
O         -0.38495        1.09269        0.48860
H         -1.30571       -1.13414        2.37114
C         -2.35690        2.72304        2.15547
H         -0.42762       -1.22931       -3.69580
H         -2.65393        3.77688        2.32440
C         -0.84201       -1.63173       -2.75572
H         -1.18192       -2.88659        0.96029
H         -0.63509       -2.71240       -2.75244
H         -1.57419        2.71034        1.38621
C         -1.23079       -3.54977        0.08471
H         -0.97429       -4.57457        0.40376
H         -3.02154        2.81209       -0.24934
Ru        -2.93506       -0.05255        0.62261
H         -2.02696        0.77702       -2.20712
N         -3.49882        1.98143        1.57545
C         -3.93458        2.70522        0.36143
C         -2.34021       -1.32858       -2.71150
H         -2.10229        0.40060       -3.95847
H         -1.91428       -4.32214       -2.46486
C         -2.53641        0.17115       -2.96995
C         -2.63204       -3.54713       -0.53522
P         -3.01159       -1.72473       -0.96046
H         -4.32824        3.70825        0.59832
C         -2.68172       -4.52591       -1.70733
H         -4.26739        1.16253        3.33244
H         -4.46718        3.66488        3.69854
H         -2.49882       -5.54360       -1.32226
C         -4.62093        1.81899        2.52745
H         -2.60217       -1.77874       -4.79210
C         -3.82632       -1.03527        1.88254
C         -3.06671       -2.07353       -3.83578
H         -3.68005       -3.38462        1.39545
C         -3.62992       -4.03671        0.51621
H         -3.00493       -3.16488       -3.76707
H         -3.30884       -5.03384        0.86118
C         -4.92528        1.91027       -0.43937
N         -4.60825        0.61301       -0.54372
C         -5.20538        3.09470        3.11539
H         -3.60002        0.44820       -3.01407
H         -5.40405        1.25428        2.00043
H         -3.66651       -4.53633       -2.19830
H         -5.62643        3.76339        2.34944
C         -4.87492       -1.67125       -1.24538
H         -6.02607        2.82596        3.79731
H         -4.12726       -1.78721       -3.89992
C         -5.34574       -0.24586       -1.26668
C         -6.04579        2.42206       -1.08448
H         -4.64439       -4.15039        0.10438
H         -6.29998        3.47896       -0.99280
H         -5.30252       -2.14906       -0.34836
H         -5.22703       -2.22986       -2.12386
C         -6.47205        0.21034       -1.95158
C         -6.82062        1.55588       -1.85653
H         -7.06783       -0.48277       -2.54710
H         -7.70165        1.92993       -2.38145
O         -4.36685       -1.59430        2.76199
C          2.25167       -4.29309        2.27755
H          0.39583        1.33942       -1.78486
O         -0.36653       -0.90591        2.48840
H          0.73781        3.27401       -0.09012
O          1.22609       -0.75221       -0.35429
H         -0.31008       -0.13011        1.88696
C          2.07281       -2.87484        1.75462
H          0.50681        1.61081       -3.53587
C          0.94319        1.88673       -2.56096
H          1.64615        2.93677        1.37694
H          0.75294        2.95908       -2.41240
C          1.58882        3.61533        0.51389
H          1.38245        4.63756        0.87464
H          3.15971       -2.92964       -0.49344
Ru         2.95689        0.02827        0.59441
H          2.12087       -0.58001       -2.18738
N          3.30918       -2.12648        1.41908
C          3.95399       -2.77327        0.25460
C          2.43551        1.55263       -2.57945
H          2.13359       -0.10388       -3.91191
H          2.01166        4.50714       -2.06629
C          2.60575        0.06800       -2.92953
C          2.90834        3.61726       -0.26354
P          3.17228        1.81394       -0.83471
H          4.37478       -3.75778        0.52349
C          2.85567        4.65771       -1.38144
H          5.09599       -1.45939        2.25320
H          3.06137       -0.67203        3.66314
H          2.72919        5.65276       -0.92212
C          4.25634       -2.10181        2.55628
H          2.66689        2.10290       -4.63927
C          3.93524        0.88083        1.86610
C          3.13950        2.35789       -3.67561
H          4.19371        3.31580        1.50469
C          4.03763        4.02757        0.68557
H          3.05890        3.44287       -3.55122
H          3.76725        4.99536        1.13992
C          5.01008       -1.92268       -0.38787
N          4.65226       -0.63829       -0.54253
C          3.63809       -1.59024        3.84198
H          3.66631       -0.21033       -3.02644
H          4.66912       -3.11774        2.71260
H          3.78625        4.68653       -1.96801
H          2.96626       -2.32853        4.30224
C          5.01901        1.67387       -1.14702
H          4.43318       -1.35802        4.56463
H          4.20379        2.09394       -3.76710
C          5.47119        0.24205       -1.14904
C          6.23062       -2.39505       -0.85291
H          4.99148        4.17700        0.15630
H          6.50582       -3.44076       -0.70779
H          5.48192        2.15371       -0.26885
H          5.37597        2.21375       -2.03570
C          6.69276       -0.17940       -1.67161
C          7.07707       -1.50981       -1.52099
H          7.34110        0.53679       -2.17869
H          8.03652       -1.85275       -1.91186
H          0.79995       -1.32491        0.29707
O          4.54114        1.39186        2.73121
H          1.25379       -4.72684        2.44173
H          2.78425       -4.33160        3.23914
H          2.77813       -4.94998        1.56809
H          1.48695       -2.91660        0.82732
H          1.48877       -2.26647        2.45624
H          0.21945        0.42705        0.02318
