63
	Energy: -928583.3465243
N         -0.76649        1.41843       -0.07154
C         -2.01036        1.85279        0.21670
C          0.14794        2.26376       -0.59987
C         -2.37124        3.18384        0.05372
C         -1.41729        4.08485       -0.41404
C         -0.15168        3.61575       -0.75320
C         -2.92299        0.78241        0.73207
H         -3.38574        3.50509        0.29284
H         -1.66577        5.14026       -0.53683
H          0.60447        4.28902       -1.15894
C          1.43193        1.64925       -1.06883
N         -2.68842       -0.50404        0.04480
H         -3.97678        1.10586        0.66433
H         -2.69735        0.61853        1.79906
H          1.29444        1.38772       -2.13247
P          1.73612       -0.00383       -0.23635
H          2.26951        2.35979       -1.00852
Ru        -0.40632       -0.58507        0.12753
C         -3.13183       -0.43630       -1.37016
C          2.76388       -0.97221       -1.51000
C         -3.38459       -1.57380        0.79678
C          2.81626        0.48715        1.25846
C          1.79173       -1.54530       -2.54607
C          3.42342       -2.15521       -0.79768
C          3.81352       -0.12407       -2.23086
C          2.06226        1.60908        1.98221
C          4.20708        1.00144        0.88987
C          2.94913       -0.70018        2.21525
H         -0.38263       -0.54300       -1.52205
H         -2.58034        0.39612       -1.82922
C         -4.62669       -0.27589       -1.60563
H         -2.75557       -1.34493       -1.85563
H         -2.93436       -1.58370        1.80041
C         -3.24221       -2.94035        0.16087
H         -4.45015       -1.29713        0.92821
C         -0.42880       -0.79162        2.01232
O         -0.17639       -2.63743       -0.18445
H          0.11822       -3.04741        0.63704
H         -2.17636       -3.12248       -0.07293
H         -3.84319       -3.03847       -0.75619
H         -3.59904       -3.70383        0.86859
H         -4.80781       -0.21749       -2.68943
H         -5.03495        0.64510       -1.16155
H         -5.20838       -1.12709       -1.22230
H          2.37599       -2.14707       -3.26386
H          1.27463       -0.75585       -3.11162
H          1.03384       -2.17538       -2.05570
H          3.86573       -2.82409       -1.55452
H          2.67531       -2.73449       -0.23591
H          4.23239       -1.84668       -0.12066
H          4.32954       -0.75890       -2.97077
H          4.57883        0.28829       -1.56235
H          3.35837        0.70854       -2.78858
H          4.85268        0.20776        0.48993
H          4.69648        1.39306        1.79777
H          4.17387        1.82343        0.15832
H          3.52252       -1.52815        1.78067
H          1.96980       -1.08747        2.52084
H          3.47731       -0.36929        3.12537
H          2.57082        1.82424        2.93635
H          1.02509        1.32521        2.20880
H          2.04757        2.54327        1.40092
O         -0.46674       -0.98768        3.15824
