65
	Energy: -1022877.9694572
H         -3.42976       -3.70790        1.27113
C         -3.01162       -3.15077        0.42014
H         -3.55366       -3.47419       -0.48113
H         -1.95814       -3.44071        0.31773
H          1.36236       -0.70333        2.50674
O         -1.12124        0.06049        2.85820
H          4.36070       -1.59676        0.37966
O         -0.78422       -0.27367        4.02997
C         -3.15890       -1.67069        0.69508
H          2.77674       -0.02294        3.34918
H         -4.23370       -1.40986        0.75487
C          2.41007       -0.39541        2.37819
H          2.95242       -2.62472        0.00267
H          3.00526       -1.27990        2.11270
H         -2.70394       -1.41491        1.66302
C          3.73423       -1.98765       -0.43440
H          4.37454       -2.62773       -1.06422
H         -2.78399        0.73368        1.12117
Ru        -0.27286       -0.70987       -0.18669
H          0.54183        1.53347        1.75374
N         -2.50333       -0.77938       -0.29579
C         -2.90531        0.60250        0.03564
C          2.52652        0.72511        1.33992
H          1.83937        2.15863        2.79742
H          4.86398        0.48416       -1.05278
C          1.59128        1.86285        1.76475
C          3.14514       -0.86935       -1.29656
P          1.83092        0.06844       -0.29965
H         -3.96718        0.78947       -0.19784
C          4.26767        0.01403       -1.84411
H         -2.39852       -2.09233       -1.91219
H         -4.89894       -1.84174       -1.46953
H          4.95092       -0.60915       -2.44547
C         -2.84533       -1.11146       -1.70080
H          4.21657        1.71467        2.23629
C          0.23774       -2.39623        0.30691
C          3.95639        1.25264        1.26906
H          1.59174       -2.16789       -2.12345
C          2.39408       -1.50304       -2.47293
H          4.68913        0.45469        1.08369
H          3.10351       -2.08724       -3.08279
C         -2.02788        1.63038       -0.60488
N         -0.74427        1.25795       -0.75303
C         -4.32437       -1.11507       -2.06227
H          1.70145        2.75517        1.12814
H         -2.30572       -0.38912       -2.33264
H          3.89054        0.80687       -2.50736
H         -4.79448       -0.12797       -1.94199
C          1.58000        1.61114       -1.34069
H         -4.42952       -1.39663       -3.12063
H          4.08159        2.02627        0.49493
C          0.18305        2.13441       -1.19558
C         -2.45235        2.91279       -0.92981
H          1.93645       -0.74742       -3.13134
H         -3.49646        3.19153       -0.79077
H          1.71971        1.28659       -2.38522
H          2.32380        2.39983       -1.15068
C         -0.17861        3.44205       -1.50827
C         -1.51056        3.83023       -1.38228
H          0.58002        4.14422       -1.85565
H         -1.81020        4.85028       -1.62948
O          0.62357       -3.45596        0.61094
O         -1.93452        2.61482        2.28674
H         -1.67112        1.75290        2.67380
H         -1.08851        3.06160        2.16941
