65
	Energy: -1022862.3366652
H         -3.52909        3.63066        0.68680
C         -3.14014        2.67577        1.07009
H         -3.70774        2.43297        1.98093
H         -2.08658        2.82131        1.34241
H          1.65759        1.62389       -1.72549
O         -0.13249        4.15116       -1.87917
H          4.21485        1.15428        0.97408
O          1.02322        4.35975       -1.65856
C         -3.28448        1.62227       -0.00542
H          3.21108        1.41790       -2.58285
H         -4.35763        1.46172       -0.23123
C          2.68412        1.24653       -1.62884
H          2.71787        1.87703        1.62409
H          3.19133        1.83450       -0.85194
H         -2.80464        1.95432       -0.93683
C          3.45799        1.07669        1.76795
H          3.96970        1.26101        2.72781
H         -2.73602       -0.06024       -1.72577
Ru        -0.40746        0.28477        0.36618
H          0.82599       -0.57996       -2.46733
N         -2.65529        0.31948        0.31333
C         -2.97713       -0.60257       -0.79572
C          2.66375       -0.25294       -1.32393
H          2.33072       -0.71345       -3.40479
H          4.61259       -1.38066        1.15940
C          1.86314       -0.94464       -2.43282
C          2.80169       -0.30485        1.80611
P          1.67304       -0.50435        0.28526
H         -4.05055       -0.86240       -0.81937
C          3.87043       -1.38738        1.96654
H         -2.68589        0.42603        2.39482
H         -5.14655        0.53499        1.74855
H          4.41231       -1.21646        2.91251
C         -3.09606       -0.23282        1.61775
H          4.51800       -0.71960       -2.31985
C          0.12668        1.97410        0.77974
C          4.08269       -0.81368       -1.31025
H          1.06471        0.39181        2.93114
C          1.86034       -0.36233        3.01447
H          4.74237       -0.26860       -0.62064
H          2.44092       -0.18706        3.93633
C         -2.13124       -1.83752       -0.76503
N         -0.88543       -1.64945       -0.28699
C         -4.59579       -0.41517        1.81058
H          1.85621       -2.04051       -2.32728
H         -2.57927       -1.19605        1.74069
H          3.43684       -2.39724        2.02516
H         -5.03675       -1.11348        1.08360
C          1.35159       -2.35785        0.29786
H         -4.77557       -0.83435        2.81187
H          4.10942       -1.88199       -1.04381
C          0.00997       -2.66200       -0.29230
C         -2.53968       -3.06661       -1.26824
H          1.37180       -1.34516        3.11201
H         -3.55523       -3.19103       -1.64581
H          1.33080       -2.64239        1.36285
H          2.14391       -2.95574       -0.17788
C         -0.33534       -3.90828       -0.80978
C         -1.62275       -4.11441       -1.29836
H          0.40247       -4.71134       -0.81812
H         -1.91004       -5.08799       -1.69942
O          0.53054        3.04880        1.03179
O         -1.02013        1.17283       -2.57593
H         -0.84821        2.12314       -2.60775
H         -0.64192        0.93092       -1.67189
