128
	Energy: -1951474.5643316
H          2.21039       -2.23355       -4.32302
C          2.94020       -2.10065       -3.51092
H          3.78217       -2.78102       -3.70912
H          2.44399       -2.39608       -2.57405
H          0.28729        0.69700        0.93450
O          2.00197        0.89968       -1.11563
H          0.78753       -1.87017        2.19783
O          0.91009        0.32922       -1.54821
H          1.65613       -2.28902       -0.30684
C          3.35522       -0.64652       -3.46822
H         -0.28740        1.93394        2.06713
H          3.81547       -0.34125       -4.42738
C          0.39308        1.07378        1.96078
H          2.17595       -2.85811        1.70881
H          0.04202        0.28934        2.64875
H          2.46663       -0.01909       -3.31819
C          1.70714       -2.35054        2.56204
H          1.42251       -3.11900        3.30019
H          3.62475        1.64595       -2.49829
Ru         3.37129       -0.49295       -0.27560
H          2.20172        2.33336        0.26632
N          4.28549       -0.32083       -2.36027
C          4.59308        1.12622       -2.42419
C          1.82021        1.51701        2.27687
H          1.50189        3.46668        1.44084
H          1.06378       -0.50582        4.44736
C          2.22635        2.64419        1.31726
C          2.67215       -1.35764        3.21999
P          2.96471        0.03118        1.93490
H          5.18433        1.37831       -3.32006
C          2.07975       -0.90767        4.55421
H          5.27240       -2.15699       -2.21825
H          5.77660       -1.42642       -4.57931
H          2.01230       -1.78895        5.21372
C          5.53971       -1.11357       -2.42389
H          1.38104        3.07219        3.68524
C          4.29326       -2.00741        0.16757
C          1.90014        2.09943        3.69185
H          4.54301       -2.36849        2.62207
C          3.99571       -2.06566        3.52316
H          1.41175        1.48031        4.44974
H          3.77400       -2.98486        4.09033
C          5.27474        1.61909       -1.17756
N          4.80159        1.08031       -0.04426
C          6.33553       -1.03327       -3.71762
H          3.22071        3.05100        1.55899
H          6.15890       -0.78525       -1.57600
H          2.70644       -0.16287        5.06443
H          6.66552       -0.01184       -3.95952
C          4.66614        0.73279        2.33966
H          7.24174       -1.64741       -3.60772
H          2.93471        2.29472        4.01482
C          5.24957        1.46071        1.16314
C          6.26361        2.59505       -1.14450
H          4.65466       -1.44802        4.15262
H          6.64712        3.02308       -2.07160
H          5.29860       -0.14991        2.52652
H          4.69246        1.35254        3.24800
C          6.22637        2.45204        1.26262
C          6.73620        3.01873        0.09771
H          6.58475        2.76847        2.24304
H          7.50662        3.78970        0.15685
O          4.86915       -3.00676        0.36731
C         -1.97725       -4.45666        1.52802
H         -2.50178        2.18185        2.19599
O          0.83057       -2.38124       -0.81491
H         -1.09111        3.08609       -0.24809
O         -3.05347       -0.36368        1.91451
H          0.67780       -1.44550       -1.07669
C         -1.93640       -3.02562        1.01222
H         -3.38713        3.54642        2.92734
C         -3.08033        3.08788        1.97190
H         -0.98099        1.82862       -1.48757
H         -2.42915        3.80557        1.45027
C         -1.33266        2.85094       -1.29582
H         -0.75920        3.54442       -1.93434
H         -4.12042       -2.21994        1.93269
Ru        -2.98649       -0.33811       -0.18846
H         -4.60200        0.80015        2.14753
N         -3.08682       -2.59868        0.17864
C         -4.34181       -2.68580        0.95879
C         -4.32227        2.72502        1.15835
H         -5.40323        2.20156        2.93768
H         -2.90294        4.90516       -0.44755
C         -5.16594        1.73059        1.96779
C         -2.82692        3.02834       -1.58679
P         -3.73776        1.81492       -0.42011
H         -4.65609       -3.73378        1.10358
C         -3.19232        4.50319       -1.42759
H         -3.99955       -2.90770       -1.66592
H         -1.44430       -2.68958       -2.03879
H         -2.63751        5.07712       -2.18907
C         -3.24244       -3.41453       -1.04746
H         -5.65686        4.23734        1.88606
C         -2.67460       -0.47959       -1.97443
C         -5.18718        3.96793        0.92513
H         -2.91367        1.59427       -3.26355
C         -3.10729        2.65000       -3.04385
H         -4.62460        4.84203        0.58295
H         -2.43663        3.24323       -3.68784
C         -5.45941       -1.89036        0.34516
N         -5.07880       -0.71700       -0.17809
C         -1.97227       -3.62881       -1.84239
H         -6.12566        1.51303        1.47416
H         -3.67063       -4.39812       -0.76872
H         -4.26295        4.69503       -1.58765
H         -1.26561       -4.29481       -1.32963
C         -5.38276        1.41933       -1.25573
H         -2.23230       -4.08566       -2.80909
H         -6.00725        3.78417        0.21399
C         -5.96411        0.15525       -0.68740
C         -6.80155       -2.25763        0.36299
H         -4.13958        2.89557       -3.33875
H         -7.10272       -3.21866        0.78172
H         -5.12461        1.22841       -2.30996
H         -6.11529        2.23989       -1.23913
C         -7.32551       -0.14837       -0.68226
C         -7.74163       -1.36824       -0.15465
H         -8.04567        0.56188       -1.09029
H         -8.80221       -1.62728       -0.14874
H         -2.21835        0.01458        2.20818
O         -2.40941       -0.60536       -3.10682
H         -1.06114       -4.64518        2.10887
H         -2.00388       -5.20251        0.71828
H         -2.83017       -4.64733        2.19805
H         -1.92254       -2.30895        1.84537
H         -1.02934       -2.85403        0.41687
H         -1.41111       -0.09993       -0.07392
