128
	Energy: -1951474.1561493
H         -1.03647        3.36985        3.08686
C         -1.87738        2.67175        2.95978
H         -2.49420        2.73444        3.86928
H         -1.45224        1.65936        2.88573
H         -0.50742       -0.71139       -1.97504
O         -1.82019        1.31105       -0.74582
H         -0.32382       -2.69916       -0.17914
O         -0.70569        1.26591       -0.06804
H         -0.93925       -0.26717        1.97431
C         -2.63682        3.05984        1.71070
H         -0.55741       -1.15773       -3.69358
H         -3.07423        4.07122        1.82154
C         -0.90401       -1.44540       -2.68682
H         -1.20348       -2.51296        1.34113
H         -0.44840       -2.41614       -2.44711
H         -1.94652        3.09654        0.85797
C         -1.06834       -3.17691        0.47583
H         -0.64471       -4.13043        0.83470
H         -3.61036        2.88667       -0.59654
Ru        -3.00981        0.08582        0.50504
H         -2.62777        0.69382       -2.50679
N         -3.71266        2.11228        1.32999
C         -4.39965        2.66287        0.13946
C         -2.43174       -1.48976       -2.67211
H         -2.59871        0.04630       -4.16154
H         -1.38982       -4.27653       -2.00496
C         -2.97283       -0.13156       -3.13917
C         -2.39758       -3.45819       -0.23204
P         -3.00397       -1.76429       -0.86830
H         -4.92024        3.60783        0.36960
C         -2.18752       -4.53400       -1.29620
H         -4.14452        1.36119        3.22704
H         -4.65538        3.83486        3.44193
H         -1.88207       -5.46419       -0.78816
C         -4.68261        1.89023        2.43101
H         -2.65589       -2.20241       -4.68309
C         -3.54761       -0.87328        1.96446
C         -2.94590       -2.53087       -3.67084
H         -3.66493       -3.29103        1.56726
C         -3.40204       -4.01038        0.78280
H         -2.52697       -3.53032       -3.52266
H         -2.94310       -4.87956        1.28253
C         -5.34234        1.66922       -0.47940
N         -4.84310        0.42612       -0.54675
C         -5.36776        3.12439        2.99772
H         -4.07202       -0.11876       -3.19048
H         -5.43403        1.18372        2.04870
H         -3.10654       -4.75544       -1.85853
H         -5.96985        3.66307        2.25045
C         -4.87058       -1.93044       -1.05873
H         -6.05443        2.80670        3.79651
H         -4.04390       -2.60863       -3.66687
C         -5.52740       -0.58108       -1.11560
C         -6.59722        1.96579       -0.99644
H         -4.32463       -4.36592        0.29809
H         -6.99589        2.97909       -0.93039
H         -5.19776       -2.41547       -0.12432
H         -5.19257       -2.57248       -1.89142
C         -6.78293       -0.34135       -1.67449
C         -7.31971        0.94231       -1.61140
H         -7.33400       -1.15589       -2.14665
H         -8.30474        1.14472       -2.03571
O         -3.87795       -1.41515        2.94673
C          1.95281       -3.88677        2.67390
H          0.59001        1.45677       -1.77920
O         -0.27124       -0.28614        2.68369
H          1.01179        3.36281       -0.25399
O          1.58646       -0.94096       -0.35406
H          0.51539        0.07313        2.22742
C          1.99566       -2.43719        2.21659
H          0.64460        1.53778       -3.56161
C          1.13000        1.88492       -2.63392
H          1.90024        3.08306        1.24221
H          1.00632        2.97689       -2.59077
C          1.87484        3.70342        0.33592
H          1.71298        4.75702        0.62063
H          2.73378       -2.80487       -0.12829
Ru         3.05521        0.12114        0.69059
H          2.21182       -0.62700       -2.15874
N          3.28693       -1.95526        1.67391
C          3.64708       -2.76152        0.48694
C          2.60021        1.46605       -2.65418
H          2.15549       -0.21211       -3.91498
H          2.34759        4.45284       -2.27665
C          2.68345       -0.03522       -2.96181
C          3.19561        3.59151       -0.43602
P          3.34575        1.75031       -0.91208
H          3.95439       -3.78301        0.76983
C          3.20161        4.58166       -1.60012
H          5.24790       -1.51220        2.21934
H          3.58556       -0.42299        3.89228
H          3.13715        5.60147       -1.18439
C          4.38244       -2.02689        2.66391
H          2.86063        1.91444       -4.73126
C          4.19226        0.95819        1.83951
C          3.34029        2.19715       -3.77882
H          4.45037        3.32030        1.35817
C          4.35045        3.98034        0.48978
H          3.30218        3.28894       -3.70765
H          4.15844        4.99730        0.87100
C          4.71273       -2.11524       -0.34962
N          4.58238       -0.78802       -0.47106
C          4.04339       -1.41438        4.00814
H          3.72392       -0.36499       -3.10595
H          4.67966       -3.08505        2.80372
H          4.13016        4.52837       -2.18774
H          3.35352       -2.04529        4.58640
C          5.17302        1.42203       -1.23156
H          4.96493       -1.29537        4.59628
H          4.39337        1.88738       -3.85495
C          5.41969       -0.05944       -1.23052
C          5.72861       -2.79522       -1.01422
H          5.31346        4.01268       -0.04342
H          5.83096       -3.87529       -0.90235
H          5.69616        1.85383       -0.36258
H          5.57902        1.89863       -2.13480
C          6.44591       -0.68639       -1.93639
C          6.59788       -2.06628       -1.82386
H          7.11845       -0.09622       -2.55987
H          7.39992       -2.57357       -2.36345
H          0.77912       -0.42480       -0.22859
O          4.89279        1.46282        2.62886
H          0.95165       -4.08881        3.08322
H          2.68113       -4.11194        3.46926
H          2.11593       -4.59977        1.85081
H          1.27253       -2.24767        1.41487
H          1.71535       -1.77046        3.03805
H          1.86383        0.78431        1.54844
