63
	Energy: -975022.8334593
H         -3.38754       -3.53397        1.53840
C         -3.08449       -2.85544        0.72800
H         -3.69964       -3.09181       -0.15375
H         -2.02893       -3.06009        0.48536
H          1.99577       -1.06227        2.50906
O         -0.60729       -0.32762        2.13706
H          2.91476       -2.67415        0.32376
O         -0.29406       -1.59179        2.77994
C         -3.23558       -1.42286        1.19263
H          3.29360       -0.11419        3.30022
H         -4.29666       -1.18668        1.40319
C          2.92046       -0.49241        2.33282
H          1.67766       -2.81774       -0.93524
H          3.68266       -1.17982        1.93491
H         -2.65945       -1.27479        2.11627
C          2.72113       -2.52891       -0.74944
H          3.38511       -3.20716       -1.31153
H         -2.40630        0.82036        1.83739
Ru        -0.40306       -0.64584        0.07794
H          0.71185        1.15314        2.25711
N         -2.68196       -0.44490        0.23274
C         -2.79962        0.91046        0.81070
C          2.66361        0.68570        1.39125
H          2.11002        1.99137        3.00737
H          4.82850       -0.98794        0.00830
C          1.67173        1.65167        2.05304
C          2.98786       -1.08366       -1.18558
P          1.78598       -0.00807       -0.15417
H         -3.84706        1.25313        0.85767
C          4.47434       -0.77937       -1.00993
H         -3.05069       -1.46953       -1.54924
H         -5.36112       -1.12644       -0.59265
H          5.04465       -1.43274       -1.69173
C         -3.32297       -0.50644       -1.09993
H          4.21925        1.99983        2.06831
C         -0.46669       -1.34241       -1.60788
C          3.95614        1.46644        1.13930
H          1.60134       -1.06715       -2.90517
C          2.66553       -0.93612       -2.67536
H          4.80978        0.83385        0.87683
H          3.21495       -1.71607       -3.22845
C         -1.93606        1.91036        0.09217
N         -0.72433        1.44206       -0.24299
C         -4.83357       -0.32937       -1.13733
H          1.50488        2.55053        1.43893
H         -2.83484        0.26308       -1.71691
H          4.72459        0.26002       -1.26605
H         -5.16291        0.63819       -0.72947
C          1.49998        1.54859       -1.18068
H         -5.16880       -0.37078       -2.18449
H          3.83995        2.23299        0.35738
C          0.20761        2.22244       -0.81205
C         -2.28018        3.23402       -0.15629
H          3.00074        0.03562       -3.06956
H         -3.27064        3.60548        0.11039
H          1.39644        1.18659       -2.21609
H          2.33907        2.26030       -1.16633
C         -0.06943        3.56719       -1.06201
C         -1.32544        4.07116       -0.73425
H          0.68993        4.20635       -1.51470
H         -1.56279        5.11805       -0.93256
O         -0.59256       -1.84912       -2.65857
H          0.00586       -1.27580        3.64525
