63
	Energy: -928594.7107585
N         -0.76012        1.35702        0.06074
C         -1.98808        1.76019        0.41130
C          0.14561        2.21168       -0.43933
C         -2.35911        3.09652        0.32530
C         -1.41501        4.01483       -0.13317
C         -0.15550        3.57248       -0.52449
C         -2.86432        0.65143        0.91583
H         -3.36391        3.41035        0.61035
H         -1.66922        5.07414       -0.20352
H          0.58703        4.27030       -0.91343
C          1.42575        1.61295       -0.94035
N         -2.71088       -0.57889        0.10904
H         -3.91695        0.97807        0.97223
H         -2.54157        0.40295        1.94000
H          1.24037        1.35471       -1.99701
P          1.76437       -0.06514       -0.17220
H          2.26264        2.32326       -0.88030
Ru        -0.40278       -0.73311        0.00089
C         -3.28097       -0.39488       -1.24605
C          2.98529       -0.86039       -1.40368
C         -3.35596       -1.69012        0.84091
C          2.68585        0.37918        1.43916
C          2.16082       -1.50296       -2.52121
C          3.76716       -1.97521       -0.70760
C          3.94668        0.14899       -2.03561
C          1.78330        1.34786        2.21325
C          4.02979        1.07014        1.20419
C          2.90333       -0.86685        2.30296
H         -0.17741       -2.28874       -0.35044
H         -2.67991        0.38194       -1.73612
C         -4.77086       -0.09912       -1.32183
H         -3.04599       -1.30790       -1.80675
H         -2.86129       -1.74689        1.82075
C         -3.24236       -3.02668        0.14065
H         -4.41803       -1.44218        1.03317
C         -0.36341       -1.29063        1.73384
O         -0.55241       -0.24421       -2.02943
H         -0.51954       -1.07146       -2.52109
H         -2.19154       -3.21571       -0.12667
H         -3.85742       -3.08026       -0.76983
H         -3.58479       -3.82187        0.81910
H         -5.05260       -0.00593       -2.38153
H         -5.04794        0.84874       -0.83522
H         -5.39256       -0.89811       -0.88922
H          2.85351       -1.96637       -3.24406
H          1.53388       -0.76769       -3.04204
H          1.49724       -2.27858       -2.11355
H          4.30778       -2.55843       -1.47151
H          3.09396       -2.66558       -0.17658
H          4.51440       -1.59451        0.00201
H          4.62443       -0.38964       -2.71936
H          4.57013        0.67690       -1.30360
H          3.41141        0.89676       -2.63846
H          4.77741        0.39768        0.76244
H          4.42961        1.40719        2.17539
H          3.94093        1.96074        0.56358
H          3.62536       -1.56423        1.86222
H          1.96971       -1.41019        2.48923
H          3.30471       -0.55087        3.28072
H          2.24443        1.55016        3.19394
H          0.78337        0.92786        2.38544
H          1.66994        2.31323        1.69793
O         -0.39707       -1.72073        2.82230
