128
	Energy: -1951545.5657542
H          0.31863       -4.29565       -0.54368
C         -0.74782       -4.05620       -0.66007
H         -1.25666       -4.95812       -1.03476
H         -0.83424       -3.25902       -1.41383
H         -0.89863        2.85473        0.60480
O         -0.81090       -0.46520       -1.74247
H         -1.03805        3.35602       -1.86063
O         -1.24485       -0.42066        1.01348
H         -0.19731       -0.01036       -1.12069
C         -1.29305       -3.57816        0.66899
H         -1.52275        4.12018        1.69653
H         -1.26491       -4.40087        1.41479
C         -1.71674        3.57878        0.75441
H         -1.15604        1.73456       -2.60268
H         -1.68868        4.32026       -0.05772
H         -0.65852       -2.76439        1.04954
C         -1.58651        2.74850       -2.59407
H         -1.43788        3.20907       -3.58570
H         -2.24912       -1.89079        2.23744
Ru        -2.42361       -0.74411       -0.65979
H         -2.34600        1.11425        1.95336
N         -2.64389       -3.01925        0.56942
C         -3.08084       -2.50418        1.85122
C         -3.07295        2.87641        0.85781
H         -2.70549        2.56665        2.95908
H         -3.18995        4.76240       -1.58997
C         -3.03607        1.96444        2.09462
C         -3.08836        2.68472       -2.28609
P         -3.24831        1.72285       -0.65451
H         -3.31703       -3.29603        2.58922
C         -3.70208        4.08183       -2.28393
H         -3.31453       -4.05086       -1.10616
H         -2.95781       -5.85659        0.63487
H         -3.61235        4.51704       -3.29444
C         -3.62965       -3.89593       -0.06466
H         -4.02518        4.45554        1.97149
C         -3.36456       -1.34120       -2.12581
C         -4.19650        3.89629        1.03496
H         -3.37346        0.82330       -3.40463
C         -3.75014        1.85477       -3.38879
H         -4.25157        4.62811        0.21944
H         -3.51094        2.31281       -4.36297
C         -4.25781       -1.58700        1.69925
N         -4.21736       -0.72903        0.66500
C         -3.86878       -5.23942        0.61286
H         -4.03273        1.56862        2.34058
H         -4.57500       -3.33317       -0.12247
H         -4.77252        4.06406       -2.02686
H         -4.22593       -5.12822        1.64853
C         -5.03521        1.18702       -0.58544
H         -4.63688       -5.80115        0.05987
H         -5.17972        3.41023        1.13140
C         -5.19506        0.18768        0.51919
C         -5.31278       -1.58449        2.60864
H         -4.84681        1.83379       -3.30016
H         -5.31214       -2.30225        3.42990
H         -5.22278        0.68777       -1.54863
H         -5.75961        2.00674       -0.47589
C         -6.28110        0.23361        1.39299
C         -6.34423       -0.66720        2.44904
H         -7.05858        0.98311        1.24109
H         -7.18533       -0.64836        3.14469
O         -3.95239       -1.78104       -3.03127
C          0.46634        0.92944        4.49928
H          1.05119       -1.86914       -1.77387
O          0.68245        1.25187       -0.04535
H          1.17504        0.58034       -3.03899
O          1.59054       -1.20381        0.91053
H          0.68848        1.87513       -0.77795
C          0.80149        0.86999        3.01811
H          1.58372       -3.34978       -2.61470
C          1.79147       -2.27601       -2.47557
H          1.80904        2.09388       -2.35449
H          1.63051       -1.78465       -3.44595
C          1.94625        1.35647       -3.15761
H          1.77585        1.87055       -4.11806
H          2.26759       -1.13380        2.93873
Ru         2.56684        0.54429        0.42633
H          2.69920       -2.51644        0.11657
N          2.23960        0.90872        2.67109
C          2.92162       -0.28578        3.20523
C          3.22067       -2.10962       -1.96357
H          3.14970       -3.95308       -0.87315
H          2.92299       -0.73598       -4.64067
C          3.38740       -2.89712       -0.65726
C          3.37353        0.79744       -3.12893
P          3.47221       -0.27104       -1.54417
H          3.06077       -0.22542        4.29811
C          3.64980        0.06049       -4.43884
H          3.92137        2.13685        2.74600
H          1.86747        3.41929        1.76505
H          3.57127        0.79015       -5.26218
C          2.90572        2.12915        3.17040
H          4.10409       -3.77616       -2.97141
C          3.37619        2.16288        0.15103
C          4.22365       -2.68001       -2.97180
H          4.28215        2.54675       -2.13157
C          4.36805        1.95839       -3.05241
H          4.06518       -2.33910       -3.99929
H          4.16447        2.64113       -3.89428
C          4.23212       -0.55244        2.52984
N          4.26066       -0.29347        1.20812
C          2.17837        3.41271        2.81830
H          4.42733       -2.87195       -0.29351
H          3.02487        2.05829        4.26926
H          4.66297       -0.36397       -4.47338
H          1.28096        3.55834        3.43643
C          5.26488       -0.21591       -0.98745
H          2.84597        4.27026        2.98512
H          5.26986       -2.47853       -2.69355
C          5.35194       -0.57317        0.46505
C          5.33575       -1.10622        3.16925
H          5.40872        1.61545       -3.16035
H          5.29714       -1.30072        4.24147
H          5.57622        0.83481       -1.10176
H          5.94760       -0.82993       -1.59141
C          6.47694       -1.14500        1.05423
C          6.46875       -1.41095        2.41990
H          7.34875       -1.37413        0.44085
H          7.34436       -1.85234        2.89915
H          0.63496       -1.05555        0.77572
O          3.87246        3.21300        0.03062
H         -0.62825        0.88816        4.60526
H          0.80880        1.85473        4.98886
H          0.87716        0.07545        5.06003
H          0.39995       -0.04647        2.56943
H          0.32600        1.69534        2.47519
H         -0.66325        0.32172        0.76362
