63
	Energy: -928588.5901943
N         -0.79133        1.42415        0.01683
C         -2.02380        1.84124        0.37017
C          0.13107        2.30928       -0.42940
C         -2.40585        3.17104        0.25270
C         -1.46998        4.09574       -0.20833
C         -0.18941        3.66159       -0.54037
C         -2.87907        0.77587        0.98864
H         -3.41494        3.47721        0.53136
H         -1.73711        5.14924       -0.30717
H          0.56365        4.36371       -0.89999
C          1.46351        1.74417       -0.81210
N         -2.65212       -0.55453        0.39254
H         -3.94471        1.06478        0.96488
H         -2.59052        0.70030        2.04990
H          1.44545        1.53749       -1.89569
P          1.70832        0.05142       -0.03024
H          2.27274        2.46679       -0.62445
Ru        -0.40599       -0.62089        0.15361
C         -3.27363       -0.64358       -0.95219
C          2.97845       -0.74783       -1.20012
C         -3.18949       -1.56064        1.33979
C          2.53410        0.45347        1.64701
C          2.19457       -1.27404       -2.40610
C          3.63932       -1.93931       -0.50368
C          4.04527        0.22764       -1.70266
C          1.63138        1.49050        2.32374
C          3.95281        1.01018        1.57578
C          2.49280       -0.81727        2.50075
H         -2.80880        0.13549       -1.57050
C         -4.79102       -0.53396       -1.01525
H         -2.93530       -1.59110       -1.39047
H         -2.55934       -1.48842        2.23915
C         -3.18632       -2.98500        0.83054
H         -4.21908       -1.27293        1.63398
C          0.03994       -2.38933        0.14073
H         -2.18198       -3.29149        0.51148
H         -3.88327       -3.13688       -0.00645
H         -3.50338       -3.65153        1.64617
H         -5.10318       -0.62787       -2.06600
H         -5.16787        0.43500       -0.65414
H         -5.29928       -1.32900       -0.44968
H          2.90715       -1.71394       -3.12478
H          1.62743       -0.48790       -2.92492
H          1.47710       -2.04963       -2.10743
H          4.23655       -2.49727       -1.24443
H          2.89196       -2.63300       -0.09153
H          4.32107       -1.63378        0.30265
H          4.74182       -0.31648       -2.36279
H          4.63926        0.67500       -0.89613
H          3.60801        1.04018       -2.30181
H          4.67507        0.27479        1.19572
H          4.28265        1.29668        2.58941
H          4.01533        1.91267        0.94747
H          3.13835       -1.61377        2.10810
H          1.46338       -1.20515        2.54493
H          2.83194       -0.58265        3.52443
H          1.98486        1.65715        3.35522
H          0.59120        1.13131        2.36546
H          1.64500        2.46423        1.80977
O          0.39658       -3.50621        0.09718
O         -0.69010        0.21173       -2.97203
H         -0.95813        1.08513       -2.66151
H         -0.52984       -0.26674       -2.11021
