63
	Energy: -975173.7263503
N         -0.73550        1.42125       -0.02208
C         -1.96750        1.86456        0.28053
C          0.17340        2.23170       -0.59528
C         -2.32652        3.19045        0.08017
C         -1.37539        4.06578       -0.44217
C         -0.11894        3.58115       -0.79053
C         -2.86501        0.81117        0.85662
H         -3.33302        3.52853        0.32880
H         -1.62190        5.11719       -0.59960
H          0.63046        4.23614       -1.23640
C          1.44263        1.58998       -1.06790
N         -2.69846       -0.48240        0.16027
H         -3.91549        1.14707        0.85267
H         -2.57625        0.65027        1.90818
H          1.23589        1.24028       -2.09463
P          1.78869       -0.00874       -0.17117
H          2.28334        2.29787       -1.08076
Ru        -0.41448       -0.64096        0.07272
C         -3.25948       -0.42483       -1.21093
C          2.95262       -0.96472       -1.33095
C         -3.33235       -1.54129        0.98082
C          2.72034        0.54474        1.39552
C          2.10182       -1.66971       -2.38906
C          3.68224       -2.04466       -0.52984
C          3.95300       -0.04857       -2.03970
C          1.85805        1.61627        2.07491
C          4.08721        1.16239        1.09591
C          2.89745       -0.62801        2.36501
C         -0.39102       -0.90857        1.88917
O         -0.43996       -1.10599        3.03685
H         -2.69139        0.34337       -1.75061
C         -4.75996       -0.20438       -1.31443
H         -2.97355       -1.36336       -1.70059
H         -2.84433       -1.50672        1.96523
C         -3.19827       -2.93071        0.39736
H         -4.39647       -1.28329        1.14499
O         -0.22382       -2.50500       -0.32104
O         -0.53886       -0.35007       -1.97302
H         -2.14096       -3.15136        0.17157
H         -3.79382       -3.05995       -0.51852
H         -3.56282       -3.66199        1.13397
H         -5.03187       -0.17514       -2.38023
H         -5.08940        0.75050       -0.87617
H         -5.34650       -1.01228       -0.85134
H          2.78023       -2.24866       -3.03846
H          1.53741       -0.95722       -3.00423
H          1.37671       -2.35037       -1.91752
H          4.20178       -2.71174       -1.23693
H          2.97485       -2.65965        0.04710
H          4.44129       -1.63469        0.15033
H          4.59219       -0.66907       -2.68980
H          4.61277        0.49757       -1.35440
H          3.44634        0.67926       -2.69033
H          4.80829        0.42454        0.71985
H          4.50075        1.57465        2.03148
H          4.02741        1.99115        0.37408
H          3.61500       -1.37036        1.99704
H          1.95320       -1.14306        2.57572
H          3.28477       -0.23823        3.32116
H          2.32646        1.88437        3.03586
H          0.83963        1.26333        2.28304
H          1.78947        2.53610        1.47544
H         -0.52085       -1.27160       -2.26913
