63
	Energy: -975172.0784791
H         -3.52147       -3.33180        1.91476
C         -3.21273       -2.73924        1.04103
H         -3.90599       -2.97992        0.22015
H         -2.19116       -3.04829        0.76397
H          1.93826       -0.69328        2.69178
O         -0.16459       -2.37754        0.90223
H          2.96531       -2.60730        0.75502
O         -0.51143       -0.09534        2.16923
C         -3.22818       -1.27357        1.41611
H          3.26996        0.29760        3.34665
H         -4.25213       -0.93762        1.66951
C          2.88237       -0.19169        2.43768
H          1.61419       -2.86521       -0.35016
H          3.61834       -0.94831        2.12774
H         -2.58714       -1.09775        2.29149
C          2.68130       -2.59912       -0.30746
H          3.27596       -3.37305       -0.82088
H         -2.30473        0.98017        1.86228
Ru        -0.40986       -0.62255        0.17304
H          0.70035        1.43941        2.15670
N         -2.67307       -0.38667        0.36774
C         -2.74464        1.00794        0.85003
C          2.64564        0.86733        1.36016
H          2.10188        2.34881        2.81099
H          4.81260       -0.98398        0.21233
C          1.66058        1.91369        1.89823
C          2.97237       -1.24134       -0.95698
P          1.80265        0.00325       -0.10829
H         -3.78248        1.37546        0.90262
C          4.46192       -0.92727       -0.82616
H         -3.12810       -1.53856       -1.31205
H         -5.39232       -1.04930       -0.30824
H          5.02152       -1.68584       -1.39840
C         -3.35946       -0.53418       -0.93590
H          4.21857        2.22703        1.87501
C         -0.54036       -1.26267       -1.54368
C          3.94788        1.59477        1.01331
H          1.59523       -1.50593       -2.66402
C          2.65159       -1.30784       -2.45228
H          4.79263        0.92558        0.82327
H          3.22919       -2.13934       -2.88826
C         -1.88127        1.92541        0.03882
N         -0.70686        1.38778       -0.33782
C         -4.86498       -0.31800       -0.93794
H          1.51175        2.74169        1.18775
H         -2.87726        0.17266       -1.62817
H          4.72653        0.05722       -1.23858
H         -5.15359        0.69064       -0.60641
C          1.50175        1.40498       -1.31722
H         -5.23715       -0.44030       -1.96609
H          3.83783        2.26939        0.14977
C          0.23022        2.12364       -0.96564
C         -2.18126        3.25278       -0.24505
H          2.95743       -0.39133       -2.98035
H         -3.14183        3.67075        0.05806
H          1.36662        0.92202       -2.29851
H          2.34420        2.10582       -1.40654
C         -0.00850        3.46423       -1.25873
C         -1.22962        4.03010       -0.90145
H          0.75780        4.05357       -1.76333
H         -1.43685        5.07689       -1.13027
O         -0.71029       -1.72257       -2.59914
H         -0.30740       -0.97807        2.52158
