63
	Energy: -928595.0842646
N         -0.80008        1.42201       -0.04137
C         -2.01529        1.84205        0.33314
C          0.08710        2.25307       -0.61139
C         -2.40612        3.16389        0.15747
C         -1.49281        4.05289       -0.40659
C         -0.23606        3.59815       -0.79275
C         -2.83614        0.77931        0.99500
H         -3.40192        3.48854        0.46079
H         -1.76456        5.10007       -0.55239
H          0.48999        4.27366       -1.24616
C          1.38015        1.63724       -1.04565
N         -2.67460       -0.52971        0.33005
H         -3.89593        1.07920        1.06179
H         -2.45228        0.65674        2.02086
H          1.20532        1.24514       -2.06318
P          1.72843        0.07619       -0.07604
H          2.20011        2.36921       -1.06618
Ru        -0.40440       -0.63417        0.12216
C         -3.31677       -0.52889       -1.00610
C          2.98840       -0.83483       -1.17047
C         -3.23884       -1.55482        1.23772
C          2.56798        0.66948        1.52673
C          2.19557       -1.57220       -2.25448
C          3.75077       -1.87787       -0.35107
C          3.96721        0.12336       -1.85464
C          1.66301        1.74844        2.13123
C          3.95882        1.26826        1.32423
C          2.62271       -0.50133        2.51198
H         -0.38438       -0.55794        1.74376
H         -2.72303        0.14852       -1.63637
C         -4.80382       -0.21466       -1.04423
H         -3.12800       -1.52055       -1.43586
H         -2.59533       -1.54706        2.12912
C         -3.29428       -2.95019        0.65467
H         -4.25429       -1.24594        1.55620
C          0.02966       -2.39316        0.33554
O         -0.62223       -0.36430       -2.01252
H         -0.67378       -1.23608       -2.41991
H         -2.32106       -3.24701        0.24091
H         -4.05502       -3.04876       -0.13346
H         -3.55292       -3.66121        1.45301
H         -5.15707       -0.32368       -2.08074
H         -5.03248        0.81782       -0.73872
H         -5.40541       -0.89516       -0.42114
H          2.90435       -1.96849       -3.00088
H          1.45853       -0.92112       -2.74563
H          1.64034       -2.41699       -1.82452
H          4.33695       -2.50636       -1.04223
H          3.06523       -2.54178        0.19634
H          4.45549       -1.43199        0.36428
H          4.69269       -0.46925       -2.43693
H          4.53709        0.74184       -1.15000
H          3.45345        0.78874       -2.56369
H          4.69663        0.52824        0.98659
H          4.31802        1.67091        2.28640
H          3.95127        2.10330        0.60632
H          3.31040       -1.29420        2.19136
H          1.62198       -0.93940        2.63946
H          2.97139       -0.13229        3.49119
H          2.06319        2.03045        3.11924
H          0.63872        1.37295        2.26559
H          1.63082        2.66104        1.51687
O          0.36196       -3.49890        0.50636
